VERSION 18
*******************************************************************************
*** TRNSYS input file (deck) generated by TrnsysStudio
*** on Wednesday, January 01, 2025 at 16:30
*** from TrnsysStudio project: C:\Users\lbarnic\OneDrive - Fraunhofer\A_Bearbeitung\9_Parameterstudie_REP\9_2_VLT_Variation\Simulationen\I_dez\dezentral.tpf
*** 
*** If you edit this file, use the File/Import TRNSYS Input File function in 
*** TrnsysStudio to update the project. 
*** 
*** If you have problems, questions or suggestions please contact your local 
*** TRNSYS distributor or mailto:software@cstb.fr 
*** 
*******************************************************************************


*******************************************************************************
*** Units 
*******************************************************************************

*******************************************************************************
*** Control cards
*******************************************************************************
* START, STOP and STEP
CONSTANTS 3
START=0
STOP=8760
STEP=15/60
SIMULATION 	 START	 STOP	 STEP	! Start time	End time	Time step
TOLERANCES 0.001 0.001			! Integration	 Convergence
LIMITS 30 30 30				! Max iterations	Max warnings	Trace limit
DFQ 1					! TRNSYS numerical integration solver method
WIDTH 80				! TRNSYS output file width, number of characters
LIST 					! NOLIST statement
					! MAP statement
SOLVER 0 1 1				! Solver statement	Minimum relaxation factor	Maximum relaxation factor
NAN_CHECK 0				! Nan DEBUG statement
OVERWRITE_CHECK 0			! Overwrite DEBUG statement
TIME_REPORT 0			! disable time report
EQSOLVER 0				! EQUATION SOLVER statement
* User defined CONSTANTS 
*$USER_CONSTANTS

*$USER_CONSTANTS_END


* Model "electr_profiles" (Type 9)
* 

UNIT 7 TYPE 9	 electr_profiles
*$UNIT_NAME electr_profiles
*$MODEL .\Utility\Data Readers\Generic Data Files\First Line is Simulation Start\Free Format\Type9a.tmf
*$POSITION 1529 154
*$LAYER Main # 
PARAMETERS 22
2		! 1 Mode
1		! 2 Header Lines to Skip
4		! 3 No. of values to read
0.25		! 4 Time interval of data
1		! 5 Interpolate or not?-1
1.0		! 6 Multiplication factor-1
0		! 7 Addition factor-1
1		! 8 Average or instantaneous value-1
1		! 9 Interpolate or not?-2
1.0		! 10 Multiplication factor-2
0		! 11 Addition factor-2
1		! 12 Average or instantaneous value-2
1		! 13 Interpolate or not?-3
1.0		! 14 Multiplication factor-3
0		! 15 Addition factor-3
1		! 16 Average or instantaneous value-3
1		! 17 Interpolate or not?-4
1.0		! 18 Multiplication factor-4
0		! 19 Addition factor-4
1		! 20 Average or instantaneous value-4
36		! 21 Logical unit for input file
-1		! 22 Free format mode
*** External files
ASSIGN "C:\Users\lbarnic\OneDrive - Fraunhofer\A_Bearbeitung\6_Gesamtsysteme_REP\Input_Data\Stromprofile\Output_Stromprofile.csv" 36
*|? Input file name |1000
*------------------------------------------------------------------------------

* Model "Plotter_Strom" (Type 65)
* 

UNIT 8 TYPE 65	 Plotter_Strom
*$UNIT_NAME Plotter_Strom
*$MODEL .\Output\Online Plotter\Online Plotter With File\No Units\Type65c.tmf
*$POSITION 1530 351
*$LAYER Main # 
PARAMETERS 12
10		! 1 Nb. of left-axis variables
1		! 2 Nb. of right-axis variables
0.0		! 3 Left axis minimum
25000		! 4 Left axis maximum
0.0		! 5 Right axis minimum
1000.0		! 6 Right axis maximum
1		! 7 Number of plots per simulation
12		! 8 X-axis gridpoints
0		! 9 Shut off Online w/o removing
37		! 10 Logical Unit for output file
0		! 11 Output file units
0		! 12 Output file delimiter
INPUTS 11
FVR_el_ges		! Strombedarf:FVR_el_ges ->Left axis variable-1
SB_el_ges		! Strombedarf:SB_el_ges ->Left axis variable-2
SpS_el_ges		! Strombedarf:SpS_el_ges ->Left axis variable-3
TV_el_ges		! Strombedarf:TV_el_ges ->Left axis variable-4
0,0		! [unconnected] Left axis variable-5
0,0		! [unconnected] Left axis variable-6
0,0		! [unconnected] Left axis variable-7
0,0		! [unconnected] Left axis variable-8
0,0		! [unconnected] Left axis variable-9
0,0		! [unconnected] Left axis variable-10
0,0		! [unconnected] Right axis variable
*** INITIAL INPUT VALUES
elec_FVR elec_SB elec_Sportschule elec_TV label label label label label
label label 
LABELS  3
"Energie pro 15 min [kW] bzw. [1/4 kWh]"
"X []"
"Electricity profiles per building"
*** External files
ASSIGN "***.plt" 37
*|? What file should the online print to? |1000
*------------------------------------------------------------------------------

* Model "heat_profiles_Amb" (Type 9)
* 

UNIT 5 TYPE 9	 heat_profiles_Amb
*$UNIT_NAME heat_profiles_Amb
*$MODEL .\Utility\Data Readers\Generic Data Files\Skip Lines to Start\Free Format\Type9c.tmf
*$POSITION 1203 154
*$LAYER Weather - Data Files # 
PARAMETERS 42
5		! 1 Mode
2		! 2 Header Lines to Skip
9		! 3 No. of values to read
0.25		! 4 Time interval of data
1		! 5 Interpolate or not-1
1.0		! 6 Multiplication factor-1
0		! 7 Addition factor-1
1		! 8 Average or instantaneous value-1
1		! 9 Interpolate or not-2
1.0		! 10 Multiplication factor-2
0		! 11 Addition factor-2
1		! 12 Average or instantaneous value-2
1		! 13 Interpolate or not-3
1.0		! 14 Multiplication factor-3
0		! 15 Addition factor-3
1		! 16 Average or instantaneous value-3
1		! 17 Interpolate or not-4
1.0		! 18 Multiplication factor-4
0		! 19 Addition factor-4
1		! 20 Average or instantaneous value-4
1		! 21 Interpolate or not-5
1.0		! 22 Multiplication factor-5
0		! 23 Addition factor-5
1		! 24 Average or instantaneous value-5
1		! 25 Interpolate or not-6
1.0		! 26 Multiplication factor-6
0		! 27 Addition factor-6
1		! 28 Average or instantaneous value-6
1		! 29 Interpolate or not-7
1.0		! 30 Multiplication factor-7
0		! 31 Addition factor-7
1		! 32 Average or instantaneous value-7
1		! 33 Interpolate or not-8
1.0		! 34 Multiplication factor-8
0		! 35 Addition factor-8
1		! 36 Average or instantaneous value-8
1		! 37 Interpolate or not-9
1.0		! 38 Multiplication factor-9
0		! 39 Addition factor-9
1		! 40 Average or instantaneous value-9
39		! 41 Logical unit for input file
-1		! 42 Free format mode
*** External files
ASSIGN "C:\Users\lbarnic\OneDrive - Fraunhofer\A_Bearbeitung\6_Gesamtsysteme_REP\Input_Data\Waermeprofile_mir\Ambitionierte_Sanierung\buildings_dfs_ambitioniert.csv" 39
*|? Input file name |1000
*------------------------------------------------------------------------------

* Model "Plotter_Bedarfe_a" (Type 65)
* 

UNIT 9 TYPE 65	 Plotter_Bedarfe_a
*$UNIT_NAME Plotter_Bedarfe_a
*$MODEL .\Output\Online Plotter\Online Plotter With File\No Units\Type65c.tmf
*$POSITION 1203 339
*$LAYER Main # 
PARAMETERS 12
5		! 1 Nb. of left-axis variables
4		! 2 Nb. of right-axis variables
0.0		! 3 Left axis minimum
150		! 4 Left axis maximum
0.0		! 5 Right axis minimum
150		! 6 Right axis maximum
1		! 7 Number of plots per simulation
12		! 8 X-axis gridpoints
0		! 9 Shut off Online w/o removing
41		! 10 Logical Unit for output file
0		! 11 Output file units
0		! 12 Output file delimiter
INPUTS 9
5,2 		! heat_profiles_Amb:FVR_a_HEAT ->Left axis variable-1
5,4 		! heat_profiles_Amb:SB_a_HEAT ->Left axis variable-2
5,6 		! heat_profiles_Amb:SpS_a_HEAT ->Left axis variable-3
5,8 		! heat_profiles_Amb:TV_a_HEAT ->Left axis variable-4
Quartier_WB		! Warmebedarfe:Quartier_WB ->Left axis variable-5
5,3 		! heat_profiles_Amb:FVR_a_COOL ->Right axis variable-1
5,5 		! heat_profiles_Amb:SB_a_COOL ->Right axis variable-2
5,7 		! heat_profiles_Amb:SpS_a_COOL ->Right axis variable-3
5,9 		! heat_profiles_Amb:TV_a_COOL ->Right axis variable-4
*** INITIAL INPUT VALUES
FVR_a_HEAT SB_a_HEAT SpS_a_HEAT TV_a_HEAT Quartier_HEAT FVR_a_COOL
SB_a_COOL SpS_a_COOL TV_a_COOL 
LABELS  3
"'Waermebedarf_ambitioniert"
"'Kaeltebedarf_ambitioniert'"
"Waerme_Kaelte_Ambitioniert"
*** External files
ASSIGN "***.plt" 41
*|? What file should the online print to? |1000
*------------------------------------------------------------------------------

* Model "TWW_Profiles" (Type 9)
* 

UNIT 10 TYPE 9	 TWW_Profiles
*$UNIT_NAME TWW_Profiles
*$MODEL .\Utility\Data Readers\Generic Data Files\Skip Lines to Start\Free Format\Type9c.tmf
*$POSITION 1415 163
*$LAYER Weather - Data Files # 
PARAMETERS 26
5		! 1 Mode
1		! 2 Header Lines to Skip
5		! 3 No. of values to read
0.25		! 4 Time interval of data
1		! 5 Interpolate or not-1
1.0		! 6 Multiplication factor-1
0		! 7 Addition factor-1
1		! 8 Average or instantaneous value-1
1		! 9 Interpolate or not-2
1.0		! 10 Multiplication factor-2
0		! 11 Addition factor-2
1		! 12 Average or instantaneous value-2
1		! 13 Interpolate or not-3
1.0		! 14 Multiplication factor-3
0		! 15 Addition factor-3
1		! 16 Average or instantaneous value-3
1		! 17 Interpolate or not-4
1.0		! 18 Multiplication factor-4
0		! 19 Addition factor-4
1		! 20 Average or instantaneous value-4
1		! 21 Interpolate or not-5
1.0		! 22 Multiplication factor-5
0		! 23 Addition factor-5
1		! 24 Average or instantaneous value-5
42		! 25 Logical unit for input file
-1		! 26 Free format mode
*** External files
ASSIGN "C:\Users\lbarnic\OneDrive - Fraunhofer\A_Bearbeitung\6_Gesamtsysteme_REP\Input_Data\TWW_Profile\TWW_profiles_15min_per_building.csv" 42
*|? Input file name |1000
*------------------------------------------------------------------------------

* Model "Plotter_TWW" (Type 65)
* 

UNIT 11 TYPE 65	 Plotter_TWW
*$UNIT_NAME Plotter_TWW
*$MODEL .\Output\Online Plotter\Online Plotter With File\No Units\Type65c.tmf
*$POSITION 1415 347
*$LAYER Main # 
PARAMETERS 12
4		! 1 Nb. of left-axis variables
1		! 2 Nb. of right-axis variables
0.0		! 3 Left axis minimum
13		! 4 Left axis maximum
0.0		! 5 Right axis minimum
36000		! 6 Right axis maximum
1		! 7 Number of plots per simulation
12		! 8 X-axis gridpoints
0		! 9 Shut off Online w/o removing
43		! 10 Logical Unit for output file
0		! 11 Output file units
0		! 12 Output file delimiter
INPUTS 5
10,2 		! TWW_Profiles:FVR_TWW_energy ->Left axis variable-1
10,3 		! TWW_Profiles:SB_TWW_energy ->Left axis variable-2
10,4 		! TWW_Profiles:SpS_TWW_energy ->Left axis variable-3
10,5 		! TWW_Profiles:TV_TWW_energy ->Left axis variable-4
10,1 		! TWW_Profiles:time ->Right axis variable
*** INITIAL INPUT VALUES
FVR_TWW SB_TWW SpS_TWW TV_TWW time 
LABELS  3
"Energy Profiles TWW [?]"
"time steps [15 mins]"
"Energy Profiles TWW"
*** External files
ASSIGN "***.plt" 43
*|? What file should the online print to? |1000
*------------------------------------------------------------------------------

* Model "Flusswasser_import" (Type 9)
* 

UNIT 43 TYPE 9	 Flusswasser_import
*$UNIT_NAME Flusswasser_import
*$MODEL .\Utility\Data Readers\Generic Data Files\Skip Lines to Start\Free Format\Type9c.tmf
*$POSITION 737 170
*$LAYER Weather - Data Files # 
PARAMETERS 10
5		! 1 Mode
1		! 2 Header Lines to Skip
1		! 3 No. of values to read
0.25		! 4 Time interval of data
1		! 5 Interpolate or not
1.0		! 6 Multiplication factor
0		! 7 Addition factor
1		! 8 Average or instantaneous value
52		! 9 Logical unit for input file
-1		! 10 Free format mode
*** External files
ASSIGN "C:\Users\lbarnic\OneDrive - Fraunhofer\A_Bearbeitung\6_Erneuerbare_Energien\6_Output_wassertemperatur_rhein.csv" 52
*|? Input file name |1000
*------------------------------------------------------------------------------

* Model "Flusswasser" (Type 65)
* 

UNIT 44 TYPE 65	 Flusswasser
*$UNIT_NAME Flusswasser
*$MODEL .\Output\Online Plotter\Online Plotter Without File\Type65d.tmf
*$POSITION 737 252
*$LAYER Main # 
PARAMETERS 12
1		! 1 Nb. of left-axis variables
0		! 2 Nb. of right-axis variables
0.0		! 3 Left axis minimum
30		! 4 Left axis maximum
0.0		! 5 Right axis minimum
1000.0		! 6 Right axis maximum
1		! 7 Number of plots per simulation
12		! 8 X-axis gridpoints
0		! 9 Shut off Online w/o removing
-1		! 10 Logical unit for output file
0		! 11 Output file units
0		! 12 Output file delimiter
INPUTS 1
43,1 		! Flusswasser_import:Output 1 ->Left axis variable
*** INITIAL INPUT VALUES
Temperatur_Rhein 
LABELS  3
"Temperature [C]"
"Heat Transfer Rate [kJ/h] "
"Flusswasser"
*------------------------------------------------------------------------------

* Model "TWW-massflow" (Type 9)
* 

UNIT 59 TYPE 9	 TWW-massflow
*$UNIT_NAME TWW-massflow
*$MODEL .\Utility\Data Readers\Generic Data Files\Skip Lines to Start\Free Format\Type9c.tmf
*$POSITION 1312 165
*$LAYER Weather - Data Files # 
PARAMETERS 26
5		! 1 Mode
1		! 2 Header Lines to Skip
5		! 3 No. of values to read
0.25		! 4 Time interval of data
1		! 5 Interpolate or not-1
1.0		! 6 Multiplication factor-1
0		! 7 Addition factor-1
1		! 8 Average or instantaneous value-1
1		! 9 Interpolate or not-2
1.0		! 10 Multiplication factor-2
0		! 11 Addition factor-2
1		! 12 Average or instantaneous value-2
1		! 13 Interpolate or not-3
1.0		! 14 Multiplication factor-3
0		! 15 Addition factor-3
1		! 16 Average or instantaneous value-3
1		! 17 Interpolate or not-4
1.0		! 18 Multiplication factor-4
0		! 19 Addition factor-4
1		! 20 Average or instantaneous value-4
1		! 21 Interpolate or not-5
1.0		! 22 Multiplication factor-5
0		! 23 Addition factor-5
1		! 24 Average or instantaneous value-5
53		! 25 Logical unit for input file
-1		! 26 Free format mode
*** External files
ASSIGN "C:\Users\lbarnic\OneDrive - Fraunhofer\A_Bearbeitung\6_Gesamtsysteme_REP\Input_Data\TWW_Profile\TWW_massflow_15min_per_building.csv" 53
*|? Input file name |1000
*------------------------------------------------------------------------------

* Model "156_Pufferspeicher_Durchlaufprinzip-2" (Type 156)
* 

UNIT 64 TYPE 156	 156_Pufferspeicher_Durchlaufprinzip-2
*$UNIT_NAME 156_Pufferspeicher_Durchlaufprinzip-2
*$MODEL .\Thermal Storage\Constant Volume Liquid Storage\Vertical Tank\With HX\Type156.tmf
*$POSITION 1152 1311
*$LAYER Main # 
*$# Cylindrical Storage Tank with Immersed Coiled-Tube Heat Exchanger
PARAMETERS 35
0.2725		! 1 Tank volume
1.331		! 2 Tank height
10		! 3 Number of tank nodes
3.325		! 4 Top loss coefficient
3.325		! 5 Edge loss coefficient
3.325		! 6 Bottom loss coefficient
4.182		! 7 Fluid specific heat
992.		! 8 Fluid density
2.224		! 9 Fluid thermal conductivity
2.352		! 10 Fluid viscosity
0.000386		! 11 Fluid thermal expansion coefficient
1.		! 12 Height fraction of inlet 1
0.		! 13 Height fraction of outlet 1
0.		! 14 Height fraction of inlet 2
1.		! 15 Height fraction of outlet 2
0.5		! 16 Height fraction of HX inlet
0.1		! 17 Height fraction of HX outlet
0.0199		! 18 HX inner tube diameter
0.0222		! 19 HX outer tube diameter
20.		! 20 Length of coiled HX tubes
1		! 21 Number of HX tubes
1440.		! 22 HX wall thermal conductivity
0.3048		! 23 HX coil diameter
0.0255		! 24 HX coil pitch
0.4		! 25 Multiplier for HX natural convection
0.25		! 26 Exponent for natural convection
25		! 27 Number of HX nodes
4.182		! 28 HX fluid specific heat
992.		! 29 HX fluid density
2.224		! 30 HX fluid thermal conductivity
2.352		! 31 HX fluid viscosity
1		! 32 Number of thermostats
0.75		! 33 Height fraction of thermostat
1		! 34 Number of auxiliary heat inputs
0.25		! 35 Height fraction of auxiliary input
INPUTS 10
68,1 		! Collectors-2:Outlet temperature ->Inlet temperature for port 1
68,2 		! Collectors-2:Outlet flowrate ->Inlet flow rate for port 1
0,0		! [unconnected] Inlet temperature for port 2
0,0		! [unconnected] Inlet flow rate for port 2
75,1 		! div-2:Temperature at outlet 1 ->Inlet temperature for HX
75,2 		! div-2:Flow rate at outlet 1 ->Inlet flow rate for HX
0,0		! [unconnected] Top loss temperature
0,0		! [unconnected] Edge loss temperature
0,0		! [unconnected] Bottom loss temperature
0,0		! [unconnected] Auxiliary heat input
*** INITIAL INPUT VALUES
20. 0. 20. 0. 20. 0. 20. 20. 20. 0. 
DERIVATIVES 10
20.		! 1 Initial tank temperature for node-1
20.		! 2 Initial tank temperature for node-2
20.		! 3 Initial tank temperature for node-3
20.		! 4 Initial tank temperature for node-4
20.		! 5 Initial tank temperature for node-5
20.		! 6 Initial tank temperature for node-6
20.		! 7 Initial tank temperature for node-7
20.		! 8 Initial tank temperature for node-8
20.		! 9 Initial tank temperature for node-9
20.		! 10 Initial tank temperature for node-10
*------------------------------------------------------------------------------

* Model "TWW-massflow-2" (Type 9)
* 

UNIT 65 TYPE 9	 TWW-massflow-2
*$UNIT_NAME TWW-massflow-2
*$MODEL .\Utility\Data Readers\Generic Data Files\Skip Lines to Start\Free Format\Type9c.tmf
*$POSITION 1012 1615
*$LAYER Main # 
PARAMETERS 26
5		! 1 Mode
1		! 2 Header Lines to Skip
5		! 3 No. of values to read
0.25		! 4 Time interval of data
1		! 5 Interpolate or not-1
1.0		! 6 Multiplication factor-1
0		! 7 Addition factor-1
1		! 8 Average or instantaneous value-1
1		! 9 Interpolate or not-2
1.0		! 10 Multiplication factor-2
0		! 11 Addition factor-2
1		! 12 Average or instantaneous value-2
1		! 13 Interpolate or not-3
1.0		! 14 Multiplication factor-3
0		! 15 Addition factor-3
1		! 16 Average or instantaneous value-3
1		! 17 Interpolate or not-4
1.0		! 18 Multiplication factor-4
0		! 19 Addition factor-4
1		! 20 Average or instantaneous value-4
1		! 21 Interpolate or not-5
1.0		! 22 Multiplication factor-5
0		! 23 Addition factor-5
1		! 24 Average or instantaneous value-5
62		! 25 Logical unit for input file
-1		! 26 Free format mode
*** External files
ASSIGN "C:\Users\lbarnic\OneDrive - Fraunhofer\A_Bearbeitung\6_Gesamtsysteme_REP\Input_Data\TWW_Profile\TWW_massflow_15min_per_building.csv" 62
*|? Input file name |1000
*------------------------------------------------------------------------------

* Model "Solarthermie_V2" (Type 65)
* 

UNIT 66 TYPE 65	 Solarthermie_V2
*$UNIT_NAME Solarthermie_V2
*$MODEL .\Output\Online Plotter\Online Plotter With File\No Units\Type65c.tmf
*$POSITION 1427 1325
*$LAYER Main # 
PARAMETERS 12
10		! 1 Nb. of left-axis variables
3		! 2 Nb. of right-axis variables
0		! 3 Left axis minimum
110		! 4 Left axis maximum
0		! 5 Right axis minimum
0.2		! 6 Right axis maximum
1		! 7 Number of plots per simulation
7		! 8 X-axis gridpoints
0		! 9 Shut off Online w/o removing
59		! 10 Logical Unit for output file
0		! 11 Output file units
0		! 12 Output file delimiter
INPUTS 13
64,22 		! 156_Pufferspeicher_Durchlaufprinzip-2:Tank nodal temperature-1 ->Left axis variable-1
64,23 		! 156_Pufferspeicher_Durchlaufprinzip-2:Tank nodal temperature-2 ->Left axis variable-2
64,24 		! 156_Pufferspeicher_Durchlaufprinzip-2:Tank nodal temperature-3 ->Left axis variable-3
64,25 		! 156_Pufferspeicher_Durchlaufprinzip-2:Tank nodal temperature-4 ->Left axis variable-4
64,26 		! 156_Pufferspeicher_Durchlaufprinzip-2:Tank nodal temperature-5 ->Left axis variable-5
64,27 		! 156_Pufferspeicher_Durchlaufprinzip-2:Tank nodal temperature-6 ->Left axis variable-6
72,1 		! mix-2:Outlet temperature ->Left axis variable-7
64,5 		! 156_Pufferspeicher_Durchlaufprinzip-2:Temperature at HX Outlet ->Left axis variable-8
64,7 		! 156_Pufferspeicher_Durchlaufprinzip-2:Average tank temperature ->Left axis variable-9
0,0		! [unconnected] Left axis variable-10
72,2 		! mix-2:Outlet flow rate ->Right axis variable-1
75,2 		! div-2:Flow rate at outlet 1 ->Right axis variable-2
75,4 		! div-2:Flow rate at outlet 2 ->Right axis variable-3
*** INITIAL INPUT VALUES
TTop T2 T3 T4 T5 TBottom Temp_TWW Temp_hx_outlet Average Tank Temp TTop
FlowRate_TWW Tank_massflow Bypass_massflow 
LABELS  3
"Temperature [C]"
"Flow Rate [kg/h]"
"Solarthermie_V2_load"
*** External files
ASSIGN "***.plt2" 59
*|? What file should the online print to? |1000
*------------------------------------------------------------------------------

* Model "Kollkreis" (Type 65)
* 

UNIT 67 TYPE 65	 Kollkreis
*$UNIT_NAME Kollkreis
*$MODEL .\Output\Online Plotter\Online Plotter With File\No Units\Type65c.tmf
*$POSITION 1223 1181
*$LAYER Main # 
PARAMETERS 12
4		! 1 Nb. of left-axis variables
1		! 2 Nb. of right-axis variables
0		! 3 Left axis minimum
150		! 4 Left axis maximum
0		! 5 Right axis minimum
1000		! 6 Right axis maximum
1		! 7 Number of plots per simulation
7		! 8 X-axis gridpoints
0		! 9 Shut off Online w/o removing
60		! 10 Logical Unit for output file
0		! 11 Output file units
0		! 12 Output file delimiter
INPUTS 5
69,1 		! Pump-2:Outlet fluid temperature ->Left axis variable-1
68,1 		! Collectors-2:Outlet temperature ->Left axis variable-2
73,1 		! controller-2:Output control function ->Left axis variable-3
64,7 		! 156_Pufferspeicher_Durchlaufprinzip-2:Average tank temperature ->Left axis variable-4
68,2 		! Collectors-2:Outlet flowrate ->Right axis variable
*** INITIAL INPUT VALUES
T_coll_In T_coll_Out Switch_pump Average_tank_temp Coll_flowrate

LABELS  3
"Temperature [C]"
"Mass Flow Rate [kg/h]"
"Kollektorkreis"
*** External files
ASSIGN "***.plt1" 60
*|? What file should the online print to? |1000
*------------------------------------------------------------------------------

* Model "Collectors-2" (Type 1)
* 

UNIT 68 TYPE 1	 Collectors-2
*$UNIT_NAME Collectors-2
*$MODEL .\Solar Thermal Collectors\Quadratic Efficiency Collector\2nd-Order Incidence Angle Modifiers\Type1b.tmf
*$POSITION 1075 1137
*$LAYER Main # 
PARAMETERS 11
1		! 1 Number in series
144		! 2 Collector area
4.19		! 3 Fluid specific heat
1		! 4 Efficiency mode
40		! 5 Tested flow rate
0.8		! 6 Intercept efficiency
13		! 7 Efficiency slope
0.05		! 8 Efficiency curvature
2		! 9 Optical mode 2
0.2		! 10 1st-order IAM
0		! 11 2nd-order IAM
INPUTS 9
69,1 		! Pump-2:Outlet fluid temperature ->Inlet temperature
69,2 		! Pump-2:Outlet flow rate ->Inlet flowrate
71,1 		! koblenz:Dry bulb temperature ->Ambient temperature
71,24 		! koblenz:Total tilted surface radiation for surface ->Incident radiation
71,18 		! koblenz:Total horizontal radiation ->Total horizontal radiation
71,22 		! koblenz:Total diffuse radiation on the horizontal ->Horizontal diffuse radiation
71,59 		! koblenz:Ground reflectance ->Ground reflectance
71,29 		! koblenz:Angle of incidence for surface ->Incidence angle
71,30 		! koblenz:Slope of surface ->Collector slope
*** INITIAL INPUT VALUES
20 0 10 0 0 0 0.200000 45 0 
*------------------------------------------------------------------------------

* Model "Pump-2" (Type 114)
* 

UNIT 69 TYPE 114	 Pump-2
*$UNIT_NAME Pump-2
*$MODEL .\Hydronics\Pumps\Single Speed\Type114.tmf
*$POSITION 906 1137
*$LAYER Main # 
*$# SINGLE-SPEED PUMP
PARAMETERS 4
160		! 1 Rated flow rate
4.19		! 2 Fluid specific heat
240		! 3 Rated power
0.0		! 4 Motor heat loss fraction
INPUTS 5
64,1 		! 156_Pufferspeicher_Durchlaufprinzip-2:Temperature at outlet 1 ->Inlet fluid temperature
64,2 		! 156_Pufferspeicher_Durchlaufprinzip-2:Flow rate at outlet 1 ->Inlet fluid flow rate
73,1 		! controller-2:Output control function ->Control signal
0,0		! [unconnected] Overall pump efficiency
0,0		! [unconnected] Motor efficiency
*** INITIAL INPUT VALUES
20 0 1 0.6 0.9 
*------------------------------------------------------------------------------

* EQUATIONS "einst"
* 
EQUATIONS 1
TCold_1 = 15
*$UNIT_NAME einst
*$LAYER Main
*$POSITION 953 1538
*$UNIT_NUMBER 70

*------------------------------------------------------------------------------


* Model "koblenz" (Type 15)
* 

UNIT 71 TYPE 15	 koblenz
*$UNIT_NAME koblenz
*$MODEL .\Weather Data Reading and Processing\Standard Format\German TRY 2017\Type15-10.tmf
*$POSITION 1300 1117
*$LAYER Main # 
PARAMETERS 9
10		! 1 File Type
61		! 2 Logical unit
3		! 3 Tilted Surface Radiation Mode
0.2		! 4 Ground reflectance: no albedo reported
0.7		! 5 Not Used
1		! 6 Number of surfaces
1		! 7 Tracking mode
40		! 8 Slope of surface
180		! 9 Azimuth of surface
*** External files
ASSIGN "C:\Users\lbarnic\OneDrive - Fraunhofer\A_Bearbeitung\6_Gesamtsysteme_REP\TRNSYS\TRY2015_503413075920_Jahr.dat" 61
*|? Which file contains the TRY weather data? |1000
*------------------------------------------------------------------------------

* Model "mix-2" (Type 11)
* 

UNIT 72 TYPE 11	 mix-2
*$UNIT_NAME mix-2
*$MODEL .\Hydronics\Tee-Piece Flow Mixer\Other Fluids\Type11h.tmf
*$POSITION 1344 1322
*$LAYER Main # 
PARAMETERS 1
1		! 1 Tee piece mode
INPUTS 4
64,5 		! 156_Pufferspeicher_Durchlaufprinzip-2:Temperature at HX Outlet ->Temperature at inlet 1
64,6 		! 156_Pufferspeicher_Durchlaufprinzip-2:HX flow rate ->Flow rate at inlet 1
75,3 		! div-2:Temperature at outlet 2 ->Temperature at inlet 2
75,4 		! div-2:Flow rate at outlet 2 ->Flow rate at inlet 2
*** INITIAL INPUT VALUES
20.0 100.0 20.0 100.0 
*------------------------------------------------------------------------------

* Model "controller-2" (Type 165)
* 

UNIT 73 TYPE 165	 controller-2
*$UNIT_NAME controller-2
*$MODEL .\Controllers\Differential Controller w_ Hysteresis\for Temperatures\Type165.tmf
*$POSITION 996 1226
*$LAYER Main # 
*$# 
*$# 
PARAMETERS 2
5		! 1 No. of oscillations
100.0		! 2 High limit cut-out
INPUTS 5
68,1 		! Collectors-2:Outlet temperature ->Upper input temperature Th
64,1 		! 156_Pufferspeicher_Durchlaufprinzip-2:Temperature at outlet 1 ->Lower input temperature Tl
64,3 		! 156_Pufferspeicher_Durchlaufprinzip-2:Temperature at outlet 2 ->Monitoring temperature Tin
0,0		! [unconnected] Upper dead band dT
0,0		! [unconnected] Lower dead band dT
*** INITIAL INPUT VALUES
20.0 10.0 20.0 3 0 
*------------------------------------------------------------------------------

* Model "tempering valve control-2" (Type 115)
* 

UNIT 74 TYPE 115	 tempering valve control-2
*$UNIT_NAME tempering valve control-2
*$MODEL .\Controllers\Tempering Valve Control\Heating Mode\Type115.tmf
*$POSITION 1152 1407
*$LAYER Main # 
PARAMETERS 1
5		! 1 # Oscillations Permitted
INPUTS 3
0,0		! [unconnected] Setpoint Temperature
64,3 		! 156_Pufferspeicher_Durchlaufprinzip-2:Temperature at outlet 2 ->Source Temperature
TCold_1		! einst:TCold_1 ->Tempering Fluid Temperature (Return Temperature)
*** INITIAL INPUT VALUES
45 10.0 20.0 
*------------------------------------------------------------------------------

* Model "div-2" (Type 11)
* 

UNIT 75 TYPE 11	 div-2
*$UNIT_NAME div-2
*$MODEL .\Hydronics\Flow Diverter\Other Fluids\Type11f.tmf
*$POSITION 1149 1535
*$LAYER Main # 
PARAMETERS 1
2		! 1 Flow diverter mode
INPUTS 3
TCold_1		! einst:TCold_1 ->Inlet temperature
65,4 		! TWW-massflow-2:Schule_massflow ->Inlet flow rate
74,2 		! tempering valve control-2:Fraction to Bypass Heat Source ->Control signal
*** INITIAL INPUT VALUES
20.0 100.0 0.5 
*------------------------------------------------------------------------------

* EQUATIONS "Warmebedarfe"
* 
EQUATIONS 5
FVR_a_Waermebed = [5,2] ![kW]
TV_a_Waermebed = [5,8]
SB_a_Waermebed = [5,4]
SpS_a_Waermebed = [5,6]
Quartier_WB = FVR_a_Waermebed+TV_a_Waermebed+SB_a_Waermebed+SpS_a_Waermebed
*$UNIT_NAME Warmebedarfe
*$LAYER Main
*$POSITION 806 479
*$UNIT_NUMBER 99

*------------------------------------------------------------------------------


* Model "Wetterdaten" (Type 15)
* 

UNIT 51 TYPE 15	 Wetterdaten
*$UNIT_NAME Wetterdaten
*$MODEL .\Weather Data Reading and Processing\Standard Format\German TRY 2017\Type15-10.tmf
*$POSITION 685 479
*$LAYER Main # 
PARAMETERS 9
10		! 1 File Type
69		! 2 Logical unit
5		! 3 Tilted Surface Radiation Mode
0.2		! 4 Ground reflectance: no albedo reported
0.7		! 5 Not Used
1		! 6 Number of surfaces
1		! 7 Tracking mode
10		! 8 Slope of surface
90		! 9 Azimuth of surface
*** External files
ASSIGN "TRY2015_503413075920_Jahr.dat" 69
*|? Which file contains the TRY weather data? |1000
*------------------------------------------------------------------------------

* EQUATIONS "Strombedarf"
* 
EQUATIONS 4
FVR_el_ges = [10,2]+([7,1]/60*15/1000) ![kWh]
SB_el_ges = [10,3]+([7,2]/60*15/1000)![kWh]
TV_el_ges = [10,5]+([7,4]/60*15/1000)![kWh]
SpS_el_ges = [7,3]/60*15/1000![kWh]
*$UNIT_NAME Strombedarf
*$LAYER Main
*$POSITION 918 479
*$UNIT_NUMBER 52

*------------------------------------------------------------------------------


* Model "SB_W-2" (Type 103)
* 

UNIT 37 TYPE 103	 SB_W-2
*$UNIT_NAME SB_W-2
*$MODEL .\Electrical\Photovoltaic Panels\Basic Model\with MPPT\Type103b.tmf
*$POSITION 1322 898
*$LAYER Main # 
PARAMETERS 14
1		! 1 MPPT mode
13.65		! 2 Module short-circuit current at reference conditions
37		! 3 Module open-circuit voltage at reference conditions
25		! 4 Reference cell temperature
1000		! 5 Reference insolation
31.09		! 6 Module voltage at max power point and reference conditions
12.86		! 7 Module current at max power point and reference conditions
0.045		! 8 Temperature coefficient of Isc (ref. cond)
-0.27		! 9 Temperature coefficient of Voc (ref. cond.)
108		! 10 Number of cells wired in series
40		! 11 Module temperature at NOCT
1.88		! 12 Module area
6		! 13 Number of modules in series
11		! 14 Number of modules in parallel
INPUTS 6
55,1 		! SB_W:Dry bulb temperature ->Ambient temperature
55,25 		! SB_W:Beam radiation for surface ->Beam radiation
55,26 		! SB_W:Sky diffuse radiation for surface ->Sky diffuse radiation
55,27 		! SB_W:Ground reflected diffuse radiation for surface ->Ground reflected diffuse radiation
55,30 		! SB_W:Slope of surface ->Array slope
55,29 		! SB_W:Angle of incidence for surface ->Incidence angle of beam radiation
*** INITIAL INPUT VALUES
25 0 0 0 0 0 
*------------------------------------------------------------------------------

* Model "SB_O-2" (Type 103)
* 

UNIT 38 TYPE 103	 SB_O-2
*$UNIT_NAME SB_O-2
*$MODEL .\Electrical\Photovoltaic Panels\Basic Model\with MPPT\Type103b.tmf
*$POSITION 1320 826
*$LAYER Main # 
PARAMETERS 14
1		! 1 MPPT mode
13.65		! 2 Module short-circuit current at reference conditions
37		! 3 Module open-circuit voltage at reference conditions
25		! 4 Reference cell temperature
1000		! 5 Reference insolation
31.09		! 6 Module voltage at max power point and reference conditions
12.86		! 7 Module current at max power point and reference conditions
0.045		! 8 Temperature coefficient of Isc (ref. cond)
-0.27		! 9 Temperature coefficient of Voc (ref. cond.)
108		! 10 Number of cells wired in series
40		! 11 Module temperature at NOCT
1.88		! 12 Module area
6		! 13 Number of modules in series
11		! 14 Number of modules in parallel
INPUTS 6