VERSION 18
*******************************************************************************
*** TRNSYS input file (deck) generated by TrnsysStudio
*** on Thursday, January 09, 2025 at 20:33
*** from TrnsysStudio project: C:\Users\lbarnic\OneDrive - Fraunhofer\A_Bearbeitung\9_Parameterstudie_REP\9_NT_WN\V6_20_Niedertemperatur\II_HT_WN.tpf
*** 
*** If you edit this file, use the File/Import TRNSYS Input File function in 
*** TrnsysStudio to update the project. 
*** 
*** If you have problems, questions or suggestions please contact your local 
*** TRNSYS distributor or mailto:software@cstb.fr 
*** 
*******************************************************************************


*******************************************************************************
*** Units 
*******************************************************************************

*******************************************************************************
*** Control cards
*******************************************************************************
* START, STOP and STEP
CONSTANTS 3
START=0
STOP=8760
STEP=15/60
SIMULATION 	 START	 STOP	 STEP	! Start time	End time	Time step
TOLERANCES 0.001 0.001			! Integration	 Convergence
LIMITS 250 250 250				! Max iterations	Max warnings	Trace limit
DFQ 1					! TRNSYS numerical integration solver method
WIDTH 80				! TRNSYS output file width, number of characters
LIST 					! NOLIST statement
					! MAP statement
SOLVER 0 1 1				! Solver statement	Minimum relaxation factor	Maximum relaxation factor
NAN_CHECK 0				! Nan DEBUG statement
OVERWRITE_CHECK 0			! Overwrite DEBUG statement
TIME_REPORT 0			! disable time report
EQSOLVER 0				! EQUATION SOLVER statement
* User defined CONSTANTS 
*$USER_CONSTANTS

*$USER_CONSTANTS_END


* Model "electr_profiles" (Type 9)
* 

UNIT 7 TYPE 9	 electr_profiles
*$UNIT_NAME electr_profiles
*$MODEL .\Utility\Data Readers\Generic Data Files\First Line is Simulation Start\Free Format\Type9a.tmf
*$POSITION 1537 190
*$LAYER Main # 
PARAMETERS 22
2		! 1 Mode
1		! 2 Header Lines to Skip
4		! 3 No. of values to read
0.25		! 4 Time interval of data
1		! 5 Interpolate or not?-1
1.0		! 6 Multiplication factor-1
0		! 7 Addition factor-1
1		! 8 Average or instantaneous value-1
1		! 9 Interpolate or not?-2
1.0		! 10 Multiplication factor-2
0		! 11 Addition factor-2
1		! 12 Average or instantaneous value-2
1		! 13 Interpolate or not?-3
1.0		! 14 Multiplication factor-3
0		! 15 Addition factor-3
1		! 16 Average or instantaneous value-3
1		! 17 Interpolate or not?-4
1.0		! 18 Multiplication factor-4
0		! 19 Addition factor-4
1		! 20 Average or instantaneous value-4
36		! 21 Logical unit for input file
-1		! 22 Free format mode
*** External files
ASSIGN "C:\Users\lbarnic\OneDrive - Fraunhofer\A_Bearbeitung\6_Gesamtsysteme_REP\Input_Data\Stromprofile\Output_Stromprofile.csv" 36
*|? Input file name |1000
*------------------------------------------------------------------------------

* Model "Plotter_Strom" (Type 65)
* 

UNIT 8 TYPE 65	 Plotter_Strom
*$UNIT_NAME Plotter_Strom
*$MODEL .\Output\Online Plotter\Online Plotter With File\No Units\Type65c.tmf
*$POSITION 1537 377
*$LAYER Main # 
PARAMETERS 12
10		! 1 Nb. of left-axis variables
1		! 2 Nb. of right-axis variables
0.0		! 3 Left axis minimum
15		! 4 Left axis maximum
0.0		! 5 Right axis minimum
1000.0		! 6 Right axis maximum
1		! 7 Number of plots per simulation
12		! 8 X-axis gridpoints
0		! 9 Shut off Online w/o removing
37		! 10 Logical Unit for output file
0		! 11 Output file units
0		! 12 Output file delimiter
INPUTS 11
FVR_el_ges		! Strombedarf:FVR_el_ges ->Left axis variable-1
SB_el_ges		! Strombedarf:SB_el_ges ->Left axis variable-2
SpS_el_ges		! Strombedarf:SpS_el_ges ->Left axis variable-3
TV_el_ges		! Strombedarf:TV_el_ges ->Left axis variable-4
0,0		! [unconnected] Left axis variable-5
0,0		! [unconnected] Left axis variable-6
0,0		! [unconnected] Left axis variable-7
0,0		! [unconnected] Left axis variable-8
0,0		! [unconnected] Left axis variable-9
0,0		! [unconnected] Left axis variable-10
0,0		! [unconnected] Right axis variable
*** INITIAL INPUT VALUES
elec_FVR elec_SB elec_Sportschule elec_TV label label label label label
label label 
LABELS  3
"Strombedarf Nutzung [kW]"
"X []"
"Electricity profiles per building"
*** External files
ASSIGN "***.plt" 37
*|? What file should the online print to? |1000
*------------------------------------------------------------------------------

* Model "heat_profiles_Basis_9c" (Type 9)
* 

UNIT 4 TYPE 9	 heat_profiles_Basis_9c
*$UNIT_NAME heat_profiles_Basis_9c
*$MODEL .\Utility\Data Readers\Generic Data Files\Skip Lines to Start\Free Format\Type9c.tmf
*$POSITION 1082 180
*$LAYER Weather - Data Files # 
PARAMETERS 42
5		! 1 Mode
2		! 2 Header Lines to Skip
9		! 3 No. of values to read
0.25		! 4 Time interval of data
1		! 5 Interpolate or not-1
1.0		! 6 Multiplication factor-1
0		! 7 Addition factor-1
1		! 8 Average or instantaneous value-1
1		! 9 Interpolate or not-2
1.0		! 10 Multiplication factor-2
0		! 11 Addition factor-2
1		! 12 Average or instantaneous value-2
1		! 13 Interpolate or not-3
1.0		! 14 Multiplication factor-3
0		! 15 Addition factor-3
1		! 16 Average or instantaneous value-3
1		! 17 Interpolate or not-4
1.0		! 18 Multiplication factor-4
0		! 19 Addition factor-4
1		! 20 Average or instantaneous value-4
1		! 21 Interpolate or not-5
1.0		! 22 Multiplication factor-5
0		! 23 Addition factor-5
1		! 24 Average or instantaneous value-5
1		! 25 Interpolate or not-6
1.0		! 26 Multiplication factor-6
0		! 27 Addition factor-6
1		! 28 Average or instantaneous value-6
1		! 29 Interpolate or not-7
1.0		! 30 Multiplication factor-7
0		! 31 Addition factor-7
1		! 32 Average or instantaneous value-7
1		! 33 Interpolate or not-8
1.0		! 34 Multiplication factor-8
0		! 35 Addition factor-8
1		! 36 Average or instantaneous value-8
1		! 37 Interpolate or not-9
1.0		! 38 Multiplication factor-9
0		! 39 Addition factor-9
1		! 40 Average or instantaneous value-9
38		! 41 Logical unit for input file
-1		! 42 Free format mode
*** External files
ASSIGN "C:\Users\lbarnic\OneDrive - Fraunhofer\A_Bearbeitung\6_Gesamtsysteme_REP\Input_Data\Waermeprofile_mir\Basissanierung\buildings_dfs_basis.csv" 38
*|? Input file name |1000
*------------------------------------------------------------------------------

* Model "heat_profiles_Amb" (Type 9)
* 

UNIT 5 TYPE 9	 heat_profiles_Amb
*$UNIT_NAME heat_profiles_Amb
*$MODEL .\Utility\Data Readers\Generic Data Files\Skip Lines to Start\Free Format\Type9c.tmf
*$POSITION 1210 180
*$LAYER Weather - Data Files # 
PARAMETERS 42
5		! 1 Mode
2		! 2 Header Lines to Skip
9		! 3 No. of values to read
0.25		! 4 Time interval of data
1		! 5 Interpolate or not-1
1.0		! 6 Multiplication factor-1
0		! 7 Addition factor-1
1		! 8 Average or instantaneous value-1
1		! 9 Interpolate or not-2
1.0		! 10 Multiplication factor-2
0		! 11 Addition factor-2
1		! 12 Average or instantaneous value-2
1		! 13 Interpolate or not-3
1.0		! 14 Multiplication factor-3
0		! 15 Addition factor-3
1		! 16 Average or instantaneous value-3
1		! 17 Interpolate or not-4
1.0		! 18 Multiplication factor-4
0		! 19 Addition factor-4
1		! 20 Average or instantaneous value-4
1		! 21 Interpolate or not-5
1.0		! 22 Multiplication factor-5
0		! 23 Addition factor-5
1		! 24 Average or instantaneous value-5
1		! 25 Interpolate or not-6
1.0		! 26 Multiplication factor-6
0		! 27 Addition factor-6
1		! 28 Average or instantaneous value-6
1		! 29 Interpolate or not-7
1.0		! 30 Multiplication factor-7
0		! 31 Addition factor-7
1		! 32 Average or instantaneous value-7
1		! 33 Interpolate or not-8
1.0		! 34 Multiplication factor-8
0		! 35 Addition factor-8
1		! 36 Average or instantaneous value-8
1		! 37 Interpolate or not-9
1.0		! 38 Multiplication factor-9
0		! 39 Addition factor-9
1		! 40 Average or instantaneous value-9
39		! 41 Logical unit for input file
-1		! 42 Free format mode
*** External files
ASSIGN "C:\Users\lbarnic\OneDrive - Fraunhofer\A_Bearbeitung\6_Gesamtsysteme_REP\Input_Data\Waermeprofile_mir\Ambitionierte_Sanierung\buildings_dfs_ambitioniert.csv" 39
*|? Input file name |1000
*------------------------------------------------------------------------------

* Model "TWW_Profiles" (Type 9)
* 

UNIT 10 TYPE 9	 TWW_Profiles
*$UNIT_NAME TWW_Profiles
*$MODEL .\Utility\Data Readers\Generic Data Files\Skip Lines to Start\Free Format\Type9c.tmf
*$POSITION 1422 186
*$LAYER Weather - Data Files # 
PARAMETERS 26
5		! 1 Mode
1		! 2 Header Lines to Skip
5		! 3 No. of values to read
0.25		! 4 Time interval of data
1		! 5 Interpolate or not-1
1.0		! 6 Multiplication factor-1
0		! 7 Addition factor-1
1		! 8 Average or instantaneous value-1
1		! 9 Interpolate or not-2
1.0		! 10 Multiplication factor-2
0		! 11 Addition factor-2
1		! 12 Average or instantaneous value-2
1		! 13 Interpolate or not-3
1.0		! 14 Multiplication factor-3
0		! 15 Addition factor-3
1		! 16 Average or instantaneous value-3
1		! 17 Interpolate or not-4
1.0		! 18 Multiplication factor-4
0		! 19 Addition factor-4
1		! 20 Average or instantaneous value-4
1		! 21 Interpolate or not-5
1.0		! 22 Multiplication factor-5
0		! 23 Addition factor-5
1		! 24 Average or instantaneous value-5
42		! 25 Logical unit for input file
-1		! 26 Free format mode
*** External files
ASSIGN "C:\Users\lbarnic\OneDrive - Fraunhofer\A_Bearbeitung\6_Gesamtsysteme_REP\Input_Data\TWW_Profile\TWW_profiles_15min_per_building.csv" 42
*|? Input file name |1000
*------------------------------------------------------------------------------

* Model "Plotter_TWW" (Type 65)
* 

UNIT 11 TYPE 65	 Plotter_TWW
*$UNIT_NAME Plotter_TWW
*$MODEL .\Output\Online Plotter\Online Plotter With File\No Units\Type65c.tmf
*$POSITION 1422 373
*$LAYER Main # 
PARAMETERS 12
4		! 1 Nb. of left-axis variables
1		! 2 Nb. of right-axis variables
0.0		! 3 Left axis minimum
13		! 4 Left axis maximum
0.0		! 5 Right axis minimum
36000		! 6 Right axis maximum
1		! 7 Number of plots per simulation
12		! 8 X-axis gridpoints
0		! 9 Shut off Online w/o removing
43		! 10 Logical Unit for output file
0		! 11 Output file units
0		! 12 Output file delimiter
INPUTS 5
10,2 		! TWW_Profiles:FVR_TWW_energy ->Left axis variable-1
10,3 		! TWW_Profiles:SB_TWW_energy ->Left axis variable-2
10,4 		! TWW_Profiles:SpS_TWW_energy ->Left axis variable-3
10,5 		! TWW_Profiles:TV_TWW_energy ->Left axis variable-4
10,1 		! TWW_Profiles:time ->Right axis variable
*** INITIAL INPUT VALUES
FVR_TWW SB_TWW SpS_TWW TV_TWW time 
LABELS  3
"Energy Profiles TWW [?]"
"time steps [15 mins]"
"Energy Profiles TWW"
*** External files
ASSIGN "***.plt" 43
*|? What file should the online print to? |1000
*------------------------------------------------------------------------------

* EQUATIONS "Strombedarf"
* 
EQUATIONS 4
FVR_el_ges = [10,2]+([7,1]/60*15/1000) ![kWh]
SB_el_ges = [10,3]+([7,2]/60*15/1000)![kWh]
TV_el_ges = [10,5]+([7,4]/60*15/1000)![kWh]
SpS_el_ges = [7,3]/60*15/1000![kWh]
*$UNIT_NAME Strombedarf
*$LAYER Main
*$POSITION 1543 299
*$UNIT_NUMBER 12

*------------------------------------------------------------------------------


* Model "Type525b_v2a" (Type 525)
* 

UNIT 13 TYPE 525	 Type525b_v2a
*$UNIT_NAME Type525b_v2a
*$MODEL .\HVAC Library (TESS)\Heat Pumps\Variable Speed Compressor\Air(source) to Water Heat Pump\Variable Speed Liquid Pump\Type525b_v2a.tmf
*$POSITION 1630 650
*$LAYER Main # 
*$# VARIABLE SPEED AIR(SOURCE) TO WATER HEAT PUMP (VARIABLE SPEED LIQUID PUMP)
*$# 
*$# 
*$# 
*$# 
*$# 
*$# 
*$# 
*$# 
*$# 
*$# 
*$# 
*$# 
*$# 
*$# 
*$# 
*$# 
*$# 
*$# 
*$# 
PARAMETERS 23
2		! 1 Liquid pump control mode
1		! 2 Heat pump control mode
2		! 3 Humidity mode
44		! 4 Logical unit for cooling data
45		! 5 Logical unit for heating data
4		! 6 Number of PLR values - cooling
4		! 7 Number of PLR values - heating
5		! 8 Number of water temps. - cooling
5		! 9 Number of water temps. - heating
6		! 10 Number of dry bulb temps. - cooling
6		! 11 Number of dry bulb temps. - heating
4.190		! 12 Specific heat of liquid stream
880		! 13 Rated liquid flow rate
270		! 14 Pump power
1		! 15 Number of fans
252		! 16 Blower power
1500		! 17 Total air flow rate
25921		! 18 Rated cooling capacity
8496		! 19 Rated cooling compressor power
20700		! 20 Rated heating capacity
4860		! 21 Rated heating compressor power
10800		! 22 Capacity of auxiliary
1		! 23 Number of auxiliary heater stages
INPUTS 12
0,0		! [unconnected] Inlet liquid temperature
0,0		! [unconnected] Inlet liquid flow rate
0,0		! [unconnected] Inlet air temperature
0,0		! [unconnected] Inlet air humidity ratio
0,0		! [unconnected] Inlet air %RH
0,0		! [unconnected] Inlet air pressure
0,0		! [unconnected] Air pressure rise across heat pump
0,0		! [unconnected] Cooling control signal
0,0		! [unconnected] Heating control signal
0,0		! [unconnected] Auxiliary heater enable signal
0,0		! [unconnected] Temperature set point
0,0		! [unconnected] Pump control signal
*** INITIAL INPUT VALUES
20.0 0.0 20.0 0.008 50.0 1.0 0 0.0 0.0 0.0 35 1 
*** External files
ASSIGN "C:\TRNSYS18\TESS Models\SampleCatalogData\Air-to-WaterHeatPumps\VSAWHP_Type525_C.dat" 44
*|? Which file contains the heat pump cooling performance data? |1000
ASSIGN "C:\TRNSYS18\TESS Models\SampleCatalogData\Air-to-WaterHeatPumps\VSAWHP_Type525_H.dat" 45
*|? Which file contains the heat pump heating performance data? |1000
*------------------------------------------------------------------------------

* Model "Type50c" (Type 50)
* 

UNIT 19 TYPE 50	 Type50c
*$UNIT_NAME Type50c
*$MODEL .\Solar Thermal Collectors\PV-Thermal Collectors\Flat Plate Collectors\Angular dependence of Transmitance\Type50c.tmf
*$POSITION 1637 874
*$LAYER Main # 
PARAMETERS 11
3		! 1 Mode
6.5		! 2 Collector Area
0.7		! 3 Collector Efficiency Factor
4.19		! 4 Fluid Thermal Capacitance
0.9		! 5 Collector plate absorptance
1		! 6 Number of glass covers
5		! 7 Collector loss coefficient
0.03		! 8 Extinction coefficient thickness product
-0.0003		! 9 Temperature coeficient of PV cell efficiency
20		! 10 Temperature for cell reference efficiency
0.5		! 11 Packing factor
INPUTS 7
0,0		! [unconnected] Inlet fluid temperature
0,0		! [unconnected] Fluid mass flow rate
0,0		! [unconnected] Ambient temperature
0,0		! [unconnected] Incident beam radiation
0,0		! [unconnected] Incident diffuse radiation
0,0		! [unconnected] Incidence angle of beam radiation
0,0		! [unconnected] Cell efficiency
*** INITIAL INPUT VALUES
0 0 0 0 0 0 0 
*------------------------------------------------------------------------------

* Model "type340-2" (Type 340)
* 

UNIT 26 TYPE 340	 type340-2
*$UNIT_NAME type340-2
*$MODEL .\Nostand\Type340\type340.tmf
*$POSITION 1633 564
*$LAYER Main # 
*$# 
*$# internal electrical heater.
*$# 
*$# 
*$# 
*$# 
*$# 
*$# 
*$# 
*$# 
*$# 
*$# 
*$# 
*$# 
*$# 
*$# 
*$# 
*$# 
*$# 
*$# 
*$# 
*$# 
*$# 
*$# 
*$# 
*$# 
*$# 
*$# 
PARAMETERS 126
1.6		! 1 storage height
0.3		! 2 storage volume
4.18		! 3 specific  heat capacity of the fluid in the store
992.42		! 4 density of the fliud in the store
4.49		! 5 effective vertical  thermal conductivity in the store
0		! 6 not used
20		! 7 initial temerpature of the whole store
0		! 8 heat loss capacity rate through bottom of the store
0		! 9 heat loss capacity rate through the top of the store
-1		! 10 dz1 if dz1>0: relative length if the first zone with (UA)s,a1       il dzl<0 and (P8,9,12,..16)=0 : (UA)s,al is used for the whole store
0		! 11 (UA)s,a1  heat loss capacity rate of the store through the first zone (dz1) of the store mantle
0		! 12 dz2 relative  length of second zone with (UA)s,a2
0		! 13 (UA)s,a2  heat loss capacity rate of the store through the first zone (dz2) of the store mantle
0		! 14 dz3 relative  length of second zone with (UA)s,a3
0		! 15 (UA)s,a3  heat loss capacity rate of the store through the first zone (dz3) of the store mantle
0		! 16 (UA)s,a4  heat loss capacity rate from  the store through the zone of the store-mantale with the relative length dz4=1-dz1-dz2-dz3
-1		! 17 rel. height of inlet postition from double port -1
-1		! 18 rel. heigth of outlet position from double port-1
0		! 19 additional parameter of double port (not used)-1
0		! 20 csd =1  for stratified charging with double port-1
-1		! 21 rel. height of inlet postition from double port -2
-1		! 22 rel. heigth of outlet position from double port-2
0		! 23 additional parameter of double port (not used)-2
0		! 24 csd =1  for stratified charging with double port-2
-1		! 25 rel. height of inlet postition from double port -3
-1		! 26 rel. heigth of outlet position from double port-3
0		! 27 additional parameter of double port (not used)-3
0		! 28 csd =1  for stratified charging with double port-3
-1		! 29 rel. height of inlet postition from double port -4
-1		! 30 rel. heigth of outlet position from double port-4
0		! 31 additional parameter of double port (not used)-4
0		! 32 csd =1  for stratified charging with double port-4
-1		! 33 rel. height of inlet postition from double port -5
-1		! 34 rel. heigth of outlet position from double port-5
0		! 35 additional parameter of double port (not used)-5
0		! 36 csd =1  for stratified charging with double port-5
-1		! 37 rel. height of inlet postition from double port -6
-1		! 38 rel. heigth of outlet position from double port-6
0		! 39 additional parameter of double port (not used)-6
0		! 40 csd =1  for stratified charging with double port-6
-1		! 41 rel. height of inlet postition from double port -7
-1		! 42 rel. heigth of outlet position from double port-7
0		! 43 additional parameter of double port (not used)-7
0		! 44 csd =1  for stratified charging with double port-7
-1		! 45 rel. height of inlet postition from double port -8
-1		! 46 rel. heigth of outlet position from double port-8
0		! 47 additional parameter of double port (not used)-8
0		! 48 csd =1  for stratified charging with double port-8
-1		! 49 rel. height of inlet postition from double port -9
-1		! 50 rel. heigth of outlet position from double port-9
0		! 51 additional parameter of double port (not used)-9
0		! 52 csd =1  for stratified charging with double port-9
-1		! 53 rel. height of inlet postition from double port -10
-1		! 54 rel. heigth of outlet position from double port-10
0		! 55 additional parameter of double port (not used)-10
0		! 56 csd =1  for stratified charging with double port-10
0.5		! 57 rel. position of temperature sensor-1
0.5		! 58 rel. position of temperature sensor-2
0.5		! 59 rel. position of temperature sensor-3
0.5		! 60 rel. position of temperature sensor-4
0.5		! 61 rel. position of temperature sensor-5
0		! 62 HMOD auxiliary heater mode 0,,,none (the P38-P43 not used)    1,,,Paux variable  2,,,Paux  constant
0		! 63 HTOP heater install mode if =1 the auxiliary heater is installed from the top, else installed from the side
0		! 64 abs. length of auxiliary heater (only if HTOP=1)
0.5		! 65 rel. position where aux. heater is installed (Only if HTOP not equal 1)
0.6		! 66 rel. position fo temperature controller for aux. heater
0		! 67 set temperature of the controller for aux. heater(only if HMOD=2)
2		! 68 dead band temperature difference of the controller (only if HMOD=2) 
-1		! 69 rel. inlet position of the heat exchanger(0...1)-1
-1		! 70 rel. outlet position of the heat exchanger(0...1)-1
0.005		! 71 volume of heat exchanger-1
4.18		! 72 spec.heat capacity of the fluid in the heat exchanger-1
992.42		! 73 densitiy of the fluid in the heatexchanger-1
0		! 74 (UA)h,s  heat transfere capacity rate from the heat exchange to the store-1
0		! 75 1. parameter for the calculation of (UA)h,s-1
0		! 76 2. parameter for the calculation of (UA)h,s-1
0.6		! 77 3. parameter for the calculation of (UA)h,s-1
0		! 78 (UA)hl,a heat loss capacity rate from the heat exchanger to ambient-1
0		! 79 sch1 stratified charging with heat exchanger if sch1=1 sch1=2-1
0		! 80 factor of secondary mass flow rate (only if sch1=2)-1
1		! 81 factor for temperature dependency of (UA)h,s-1
-1		! 82 rel. inlet position of the heat exchanger(0...1)-2
-1		! 83 rel. outlet position of the heat exchanger(0...1)-2
0.005		! 84 volume of heat exchanger-2
4.18		! 85 spec.heat capacity of the fluid in the heat exchanger-2
992.42		! 86 densitiy of the fluid in the heatexchanger-2
0		! 87 (UA)h,s  heat transfere capacity rate from the heat exchange to the store-2
0		! 88 1. parameter for the calculation of (UA)h,s-2
0		! 89 2. parameter for the calculation of (UA)h,s-2
0.6		! 90 3. parameter for the calculation of (UA)h,s-2
0		! 91 (UA)hl,a heat loss capacity rate from the heat exchanger to ambient-2
0		! 92 sch1 stratified charging with heat exchanger if sch1=1 sch1=2-2
0		! 93 factor of secondary mass flow rate (only if sch1=2)-2
1		! 94 factor for temperature dependency of (UA)h,s-2
-1		! 95 rel. inlet position of the heat exchanger(0...1)-3
-1		! 96 rel. outlet position of the heat exchanger(0...1)-3
0.005		! 97 volume of heat exchanger-3
4.18		! 98 spec.heat capacity of the fluid in the heat exchanger-3
992.42		! 99 densitiy of the fluid in the heatexchanger-3
0		! 100 (UA)h,s  heat transfere capacity rate from the heat exchange to the store-3
0		! 101 1. parameter for the calculation of (UA)h,s-3
0		! 102 2. parameter for the calculation of (UA)h,s-3
0.6		! 103 3. parameter for the calculation of (UA)h,s-3
0		! 104 (UA)hl,a heat loss capacity rate from the heat exchanger to ambient-3
0		! 105 sch1 stratified charging with heat exchanger if sch1=1 sch1=2-3
0		! 106 factor of secondary mass flow rate (only if sch1=2)-3
1		! 107 factor for temperature dependency of (UA)h,s-3
-1		! 108 rel. inlet position of the heat exchanger(0...1)-4
-1		! 109 rel. outlet position of the heat exchanger(0...1)-4
0.005		! 110 volume of heat exchanger-4
4.18		! 111 spec.heat capacity of the fluid in the heat exchanger-4
992.42		! 112 densitiy of the fluid in the heatexchanger-4
0		! 113 (UA)h,s  heat transfere capacity rate from the heat exchange to the store-4
0		! 114 1. parameter for the calculation of (UA)h,s-4
0		! 115 2. parameter for the calculation of (UA)h,s-4
0.6		! 116 3. parameter for the calculation of (UA)h,s-4
0		! 117 (UA)hl,a heat loss capacity rate from the heat exchanger to ambient-4
0		! 118 sch1 stratified charging with heat exchanger if sch1=1 sch1=2-4
0		! 119 factor of secondary mass flow rate (only if sch1=2)-4
1		! 120 factor for temperature dependency of (UA)h,s-4
0.001		! 121 accuracy for calculating the temperatures 
0		! 122 accuracy of temperature-dependence of (UA)*hx,s
10		! 123 precision of the mixing process in the store
0		! 124 flag, if the temperature-dependence timestep control is used (1=yes)
3		! 125 number of nodes for the store (Nmax<200)
0		! 126 emulation of former versions (number of version) latest:  'ver=0' or 'ver=-7', fitting mode if 'ver' is negative
INPUTS 30
0,0		! [unconnected] inlet temperature of double port-1
0,0		! [unconnected] fluid flow rate of double port-1
0,0		! [unconnected] inlet temperature of double port-2
0,0		! [unconnected] fluid flow rate of double port-2
0,0		! [unconnected] inlet temperature of double port-3
0,0		! [unconnected] fluid flow rate of double port-3
0,0		! [unconnected] inlet temperature of double port-4
0,0		! [unconnected] fluid flow rate of double port-4
0,0		! [unconnected] inlet temperature of double port-5
0,0		! [unconnected] fluid flow rate of double port-5
0,0		! [unconnected] inlet temperature of double port-6
0,0		! [unconnected] fluid flow rate of double port-6
0,0		! [unconnected] inlet temperature of double port-7
0,0		! [unconnected] fluid flow rate of double port-7
0,0		! [unconnected] inlet temperature of double port-8
0,0		! [unconnected] fluid flow rate of double port-8
0,0		! [unconnected] inlet temperature of double port-9
0,0		! [unconnected] fluid flow rate of double port-9
0,0		! [unconnected] inlet temperature of double port-10
0,0		! [unconnected] fluid flow rate of double port-10
0,0		! [unconnected] inlet temperature of heat exchanger-1
0,0		! [unconnected] fluid flow rate of heat exchanger-1
0,0		! [unconnected] inlet temperature of heat exchanger-2
0,0		! [unconnected] fluid flow rate of heat exchanger-2
0,0		! [unconnected] inlet temperature of heat exchanger-3
0,0		! [unconnected] fluid flow rate of heat exchanger-3
0,0		! [unconnected] inlet temperature of heat exchanger-4
0,0		! [unconnected] fluid flow rate of heat exchanger-4
0,0		! [unconnected] ambient temperature
0,0		! [unconnected] auxiliary heater input
*** INITIAL INPUT VALUES
20 0 20 0 20 0 20 0 20 0 20 0 20 0 20 0 20 0 20 0 20 0 20 0 20 0 20 0 15 0 
*------------------------------------------------------------------------------

* Model "SupplyMix_ST" (Type 649)
* 

UNIT 27 TYPE 649	 SupplyMix_ST
*$UNIT_NAME SupplyMix_ST
*$MODEL .\Hydronics Library (TESS)\Valves\Mixing Valve (100 Ports)\Other Fluids\Type649_v2a.tmf
*$POSITION 1626 724
*$LAYER Main # 
*$# Mixing Valve
PARAMETERS 1
1		! 1 Number of Inlets
INPUTS 2
0,0		! [unconnected] Temperature at Inlet-1-Supply_from_ST
0,0		! [unconnected] Flowrate at Inlet-1-Supply_from_ST
*** INITIAL INPUT VALUES
20 0 
*------------------------------------------------------------------------------

* EQUATIONS "PV_Rechner"
* 
EQUATIONS 9
SpS_II_power_kW = [122,3]/1000
SpS_III_W_power_kW = [121,3]/1000
SpS_III_O_power_kW = [49,3]/1000  
sum_PV_Pot = SpS_II_power_kW+SpS_III_O_power_kW+SpS_III_W_power_kW
TV_l_power_kW = [47,3]/1000
TV_r_power_kW = [46,3]/1000  
SB_O_power_kW = [45,3]/1000
SB_W_power_kW = [50,3]/1000
sum_PV_Bestand = TV_l_power_kW+TV_r_power_kW+SB_O_power_kW+SB_W_power_kW
*$UNIT_NAME PV_Rechner
*$LAYER Main
*$POSITION 320 1418
*$UNIT_NUMBER 33

*------------------------------------------------------------------------------


* Model "PV" (Type 65)
* 

UNIT 34 TYPE 65	 PV
*$UNIT_NAME PV
*$MODEL .\Output\Online Plotter\Online Plotter Without File\Type65d.tmf
*$POSITION 319 1514
*$LAYER Main # 
PARAMETERS 12
5		! 1 Nb. of left-axis variables
5		! 2 Nb. of right-axis variables
0.0		! 3 Left axis minimum
30		! 4 Left axis maximum
0.0		! 5 Right axis minimum
50		! 6 Right axis maximum
1		! 7 Number of plots per simulation
12		! 8 X-axis gridpoints
0		! 9 Shut off Online w/o removing
-1		! 10 Logical unit for output file
0		! 11 Output file units
0		! 12 Output file delimiter
INPUTS 10
SpS_II_power_kW		! PV_Rechner:SpS_II_power_kW ->Left axis variable-1
SpS_III_O_power_kW		! PV_Rechner:SpS_III_O_power_kW ->Left axis variable-2
sum_PV_Pot		! PV_Rechner:sum_PV_Pot ->Left axis variable-3
SpS_III_W_power_kW		! PV_Rechner:SpS_III_W_power_kW ->Left axis variable-4
0,0		! [unconnected] Left axis variable-5
TV_l_power_kW		! PV_Rechner:TV_l_power_kW ->Right axis variable-1
TV_r_power_kW		! PV_Rechner:TV_r_power_kW ->Right axis variable-2
SB_O_power_kW		! PV_Rechner:SB_O_power_kW ->Right axis variable-3
SB_W_power_kW		! PV_Rechner:SB_W_power_kW ->Right axis variable-4
sum_PV_Bestand		! PV_Rechner:sum_PV_Bestand ->Right axis variable-5
*** INITIAL INPUT VALUES
SpSII_PV_Pot_kW SpSIII_O_PV_Pot_kW sum_Pot SpSIII_O_PV_Pot_kW leer
TV_l_Best_kW TV_r_Best_kW SB_O_power_kW SB_W_power_kW sum_PV_Bestand

LABELS  3
"PowerPutput_potential[kW]"
"PowerPutput_real[kW]"
"PV_Potenziale"
*------------------------------------------------------------------------------

* Model "TV_0_S_35" (Type 15)
* 

UNIT 40 TYPE 15	 TV_0_S_35
*$UNIT_NAME TV_0_S_35
*$MODEL .\Weather Data Reading and Processing\Standard Format\German TRY 2017\Type15-10.tmf
*$POSITION 460 1882
*$LAYER Main # 
PARAMETERS 9
10		! 1 File Type
49		! 2 Logical unit
5		! 3 Tilted Surface Radiation Mode
0.2		! 4 Ground reflectance: no albedo reported
0.7		! 5 Not Used
1		! 6 Number of surfaces
1		! 7 Tracking mode
35		! 8 Slope of surface
20		! 9 Azimuth of surface
*** External files
ASSIGN "TRY2015_503413075920_Jahr.dat" 49
*|? Which file contains the TRY weather data? |1000
*------------------------------------------------------------------------------

* Model "SB_O" (Type 15)
* 

UNIT 41 TYPE 15	 SB_O
*$UNIT_NAME SB_O
*$MODEL .\Weather Data Reading and Processing\Standard Format\German TRY 2017\Type15-10.tmf
*$POSITION 458 1987
*$LAYER Main # 
PARAMETERS 9
10		! 1 File Type
50		! 2 Logical unit
5		! 3 Tilted Surface Radiation Mode
0.2		! 4 Ground reflectance: no albedo reported
0.7		! 5 Not Used
1		! 6 Number of surfaces
1		! 7 Tracking mode
10		! 8 Slope of surface
-90		! 9 Azimuth of surface
*** External files
ASSIGN "TRY2015_503413075920_Jahr.dat" 50
*|? Which file contains the TRY weather data? |1000
*------------------------------------------------------------------------------

* Model "SB_W" (Type 15)
* 

UNIT 42 TYPE 15	 SB_W
*$UNIT_NAME SB_W
*$MODEL .\Weather Data Reading and Processing\Standard Format\German TRY 2017\Type15-10.tmf
*$POSITION 458 2059
*$LAYER Main # 
PARAMETERS 9
10		! 1 File Type
51		! 2 Logical unit
5		! 3 Tilted Surface Radiation Mode
0.2		! 4 Ground reflectance: no albedo reported
0.7		! 5 Not Used
1		! 6 Number of surfaces
1		! 7 Tracking mode
10		! 8 Slope of surface
90		! 9 Azimuth of surface
*** External files
ASSIGN "TRY2015_503413075920_Jahr.dat" 51
*|? Which file contains the TRY weather data? |1000
*------------------------------------------------------------------------------

* Model "Flusswasser_import" (Type 9)
* 

UNIT 43 TYPE 9	 Flusswasser_import
*$UNIT_NAME Flusswasser_import
*$MODEL .\Utility\Data Readers\Generic Data Files\Skip Lines to Start\Free Format\Type9c.tmf
*$POSITION 737 170
*$LAYER Weather - Data Files # 
PARAMETERS 10
5		! 1 Mode
1		! 2 Header Lines to Skip
1		! 3 No. of values to read
0.25		! 4 Time interval of data
1		! 5 Interpolate or not
1.0		! 6 Multiplication factor
0		! 7 Addition factor
1		! 8 Average or instantaneous value
52		! 9 Logical unit for input file
-1		! 10 Free format mode
*** External files
ASSIGN "C:\Users\lbarnic\OneDrive - Fraunhofer\A_Bearbeitung\6_Erneuerbare_Energien\6_Output_wassertemperatur_rhein.csv" 52
*|? Input file name |1000
*------------------------------------------------------------------------------
